<?xml version="1.0" encoding="UTF-8"?>

<routes>

    <!-- highway route -->
    <route id="route0" edges="40.0.00 39.0.00 38.0.00"/>

    <!-- ramp to highway route -->
    <route id="route1" edges="44.0.00 39.0.00 38.0.00"/>

    <!--<flow id="flow_0" begin="0" end="20" departLane="2" route="route0" type="vehicle.audi.a2" probability="0.7"/>
    <flow id="flow_1" begin="0" end="20" departLane="3" route="route0" type="vehicle.audi.a2" probability="0.5"/>
    <flow id="flow_3" begin="0" end="20" departLane="4" route="route0" type="vehicle.audi.a2" probability="0.3"/>-->

    <vehicle id="0"  type="vehicle.tesla.model3" color="1,0,0" route="route0" depart="0" departLane="1" speedFactor="1.2"/>
    <vehicle id="1"  type="vehicle.tesla.model3" color="1,0,0" route="route1" depart="1.6" speedFactor="1.2"/>

</routes>