<?xml version="1.0" encoding="UTF-8"?>

<!-- generated on 2023-05-11 14:16:30 by Eclipse SUMO netedit Version 1.16.0
<configuration xmlns:xsi="http://www.w3.org/2001/XMLSchema-instance" xsi:noNamespaceSchemaLocation="http://sumo.dlr.de/xsd/netconvertConfiguration.xsd">

    <input>
        <sumo-net-file value="G:\src\scripts\RL_Highway_Merge\map\net\Town04.net.xml"/>
    </input>

    <output>
        <output-file value="G:\src\scripts\RL_Highway_Merge\map\net\Town04.net.xml"/>
    </output>

    <processing>
        <geometry.min-radius.fix.railways value="false"/>
        <geometry.max-grade.fix value="false"/>
        <offset.disable-normalization value="true"/>
        <lefthand value="0"/>
    </processing>

    <junctions>
        <no-turnarounds value="true"/>
        <junctions.corner-detail value="5"/>
        <junctions.limit-turn-speed value="5.50"/>
        <rectangular-lane-cut value="1"/>
    </junctions>

    <pedestrian>
        <walkingareas value="0"/>
    </pedestrian>

</configuration>
-->

<net version="1.16" junctionCornerDetail="5" rectangularLaneCut="true" limitTurnSpeed="5.50" xmlns:xsi="http://www.w3.org/2001/XMLSchema-instance" xsi:noNamespaceSchemaLocation="http://sumo.dlr.de/xsd/net_file.xsd">

    <location netOffset="503.02,423.76" convBoundary="0.00,0.00,899.28,800.65" origBoundary="-499.52,-420.26,409.23,380.40" projParameter="!"/>

    <type id="bidirectional" priority="1" speed="1.39" disallow="pedestrian tram rail_urban rail rail_electric rail_fast ship" width="3.65"/>
    <type id="biking" priority="-1" speed="5.56" allow="bicycle" width="1.50"/>
    <type id="border" priority="0" speed="1.39" disallow="all" discard="1" width="0.10"/>
    <type id="driving" priority="1" speed="13.89" disallow="pedestrian tram rail_urban rail rail_electric rail_fast ship" width="3.65"/>
    <type id="entry" priority="1" speed="22.22" disallow="pedestrian tram rail_urban rail rail_electric rail_fast ship" width="3.65"/>
    <type id="exit" priority="1" speed="22.22" disallow="pedestrian tram rail_urban rail rail_electric rail_fast ship" width="3.65"/>
    <type id="median" priority="0" speed="1.39" disallow="all" discard="1" width="0.10"/>
    <type id="mwyEntry" priority="1" speed="22.22" allow="private emergency authority army vip passenger hov taxi bus coach delivery truck trailer motorcycle evehicle custom1 custom2" width="3.65"/>
    <type id="mwyExit" priority="1" speed="22.22" allow="private emergency authority army vip passenger hov taxi bus coach delivery truck trailer motorcycle evehicle custom1 custom2" width="3.65"/>
    <type id="none" priority="0" speed="1.39" disallow="all" discard="1" width="1.00"/>
    <type id="offRamp" priority="1" speed="22.22" allow="private emergency authority army vip passenger hov taxi bus coach delivery truck trailer motorcycle evehicle custom1 custom2" width="3.65"/>
    <type id="onRamp" priority="1" speed="22.22" allow="private emergency authority army vip passenger hov taxi bus coach delivery truck trailer motorcycle evehicle custom1 custom2" width="3.65"/>
    <type id="parking" priority="1" speed="1.39" disallow="pedestrian tram rail_urban rail rail_electric rail_fast ship" width="2.50"/>
    <type id="rail" priority="3" speed="33.33" allow="rail_urban rail rail_electric rail_fast" width="3.65"/>
    <type id="restricted" priority="0" speed="13.89" disallow="all" width="3.65"/>
    <type id="roadWorks" priority="0" speed="1.39" allow="authority" width="3.65"/>
    <type id="shoulder" priority="0" speed="1.39" disallow="all" discard="1" width="1.00"/>
    <type id="sidewalk" priority="-2" speed="2.78" allow="pedestrian" width="2.50"/>
    <type id="special1" priority="1" speed="22.22" allow="custom1" discard="1" width="3.65"/>
    <type id="special2" priority="1" speed="22.22" allow="custom2" discard="1" width="3.65"/>
    <type id="special3" priority="1" speed="22.22" allow="custom1 custom2" discard="1" width="3.65"/>
    <type id="stop" priority="1" speed="13.89" disallow="pedestrian tram rail_urban rail rail_electric rail_fast ship" width="3.65"/>
    <type id="tram" priority="2" speed="13.89" allow="tram" width="3.65"/>

    <edge id=":1012_0" function="internal">
        <lane id=":1012_0_0" index="0" disallow="pedestrian tram rail_urban rail rail_electric rail_fast ship" speed="13.89" length="26.00" width="3.50" shape="883.07,444.55 881.81,437.98 880.26,433.57 877.59,429.73 872.99,424.86"/>
        <lane id=":1012_0_1" index="1" disallow="pedestrian tram rail_urban rail rail_electric rail_fast ship" speed="13.89" length="26.00" width="3.50" shape="886.52,443.98 885.15,436.78 883.44,431.94 880.52,427.73 875.49,422.40"/>
        <lane id=":1012_0_2" index="2" disallow="pedestrian tram rail_urban rail rail_electric rail_fast ship" speed="13.89" length="26.00" width="3.50" shape="889.97,443.40 888.48,435.57 886.63,430.32 883.45,425.74 877.98,419.94"/>
        <lane id=":1012_0_3" index="3" disallow="pedestrian tram rail_urban rail rail_electric rail_fast ship" speed="13.89" length="26.00" width="3.50" shape="893.43,442.83 891.82,434.37 889.82,428.69 886.38,423.75 880.47,417.49"/>
    </edge>
    <edge id=":1012_4" function="internal">
        <lane id=":1012_4_0" index="0" disallow="pedestrian tram rail_urban rail rail_electric rail_fast ship" speed="13.89" length="42.11" width="3.50" shape="907.10,397.85 914.14,439.37"/>
        <lane id=":1012_4_1" index="1" disallow="pedestrian tram rail_urban rail rail_electric rail_fast ship" speed="13.89" length="42.11" width="3.50" shape="903.65,398.43 910.69,439.95"/>
    </edge>
    <edge id=":1012_6" function="internal">
        <lane id=":1012_6_0" index="0" disallow="pedestrian tram rail_urban rail rail_electric rail_fast ship" speed="13.89" length="39.03" width="3.50" shape="895.43,402.75 903.97,411.79 908.94,418.94 911.83,427.15 914.14,439.37"/>
        <lane id=":1012_6_1" index="1" disallow="pedestrian tram rail_urban rail rail_electric rail_fast ship" speed="13.89" length="39.03" width="3.50" shape="892.94,405.20 901.04,413.79 905.75,420.57 908.50,428.35 910.69,439.95"/>
        <lane id=":1012_6_2" index="2" disallow="pedestrian tram rail_urban rail rail_electric rail_fast ship" speed="13.89" length="39.03" width="3.50" shape="890.44,407.66 898.11,415.78 902.57,422.19 905.16,429.56 907.24,440.52"/>
        <lane id=":1012_6_3" index="3" disallow="pedestrian tram rail_urban rail rail_electric rail_fast ship" speed="13.89" length="39.03" width="3.50" shape="887.95,410.12 895.18,417.77 899.38,423.82 901.83,430.76 903.78,441.10"/>
    </edge>
    <edge id=":106_0" function="internal">
        <lane id=":106_0_0" index="0" disallow="pedestrian tram rail_urban rail rail_electric rail_fast ship" speed="7.97" length="13.75" width="3.50" shape="705.05,743.26,0.02 704.43,739.61,0.02 702.75,737.00,0.02 700.03,735.45,0.03 696.25,734.93,0.03"/>
    </edge>
    <edge id=":106_1" function="internal">
        <lane id=":106_1_0" index="0" disallow="pedestrian tram rail_urban rail rail_electric rail_fast ship" speed="13.89" length="20.65" width="3.50" shape="705.05,743.26,0.02 704.57,722.61,0.02"/>
    </edge>
    <edge id=":106_2" function="internal">
        <lane id=":106_2_0" index="0" disallow="pedestrian tram rail_urban rail rail_electric rail_fast ship" speed="8.73" length="17.16" width="3.50" shape="705.05,743.26,0.02 705.55,738.21,0.01 707.30,734.59,0.01 710.31,732.40,0.01 714.59,731.64"/>
    </edge>
    <edge id=":106_3" function="internal">
        <lane id=":106_3_0" index="0" disallow="pedestrian tram rail_urban rail rail_electric rail_fast ship" speed="7.25" length="11.47" width="3.50" shape="714.62,735.14 711.90,735.66,0.00 709.98,737.18,0.01 708.86,739.68,0.01 708.55,743.18,0.02"/>
    </edge>
    <edge id=":106_4" function="internal">
        <lane id=":106_4_0" index="0" disallow="pedestrian tram rail_urban rail rail_electric rail_fast ship" speed="13.89" length="18.37" width="3.50" shape="714.62,735.14 696.25,734.93,0.03"/>
    </edge>
    <edge id=":106_5" function="internal">
        <lane id=":106_5_0" index="0" disallow="pedestrian tram rail_urban rail rail_electric rail_fast ship" speed="9.04" length="4.49" width="3.50" shape="714.62,735.14 710.32,734.39,0.00 710.22,734.32,0.00"/>
    </edge>
    <edge id=":106_12" function="internal">
        <lane id=":106_12_0" index="0" disallow="pedestrian tram rail_urban rail rail_electric rail_fast ship" speed="9.04" length="13.70" width="3.50" shape="710.22,734.32,0.00 707.21,732.06,0.01 705.29,728.13,0.01 704.57,722.61,0.02"/>
    </edge>
    <edge id=":106_6" function="internal">
        <lane id=":106_6_0" index="0" disallow="pedestrian tram rail_urban rail rail_electric rail_fast ship" speed="7.63" length="12.61" width="3.50" shape="708.07,722.55,0.02 708.55,726.55,0.01 709.79,729.40,0.01 711.80,731.09,0.00 714.59,731.64"/>
    </edge>
    <edge id=":106_7" function="internal">
        <lane id=":106_7_0" index="0" disallow="pedestrian tram rail_urban rail rail_electric rail_fast ship" speed="13.89" length="20.64" width="3.50" shape="708.07,722.55,0.02 708.55,743.18,0.02"/>
    </edge>
    <edge id=":106_8" function="internal">
        <lane id=":106_8_0" index="0" disallow="pedestrian tram rail_urban rail rail_electric rail_fast ship" speed="9.28" length="19.60" width="3.50" shape="708.07,722.55,0.02 707.42,727.95,0.02 705.24,731.82,0.03 701.52,734.15,0.03 696.25,734.93,0.03"/>
    </edge>
    <edge id=":106_9" function="internal">
        <lane id=":106_9_0" index="0" disallow="pedestrian tram rail_urban rail rail_electric rail_fast ship" speed="7.90" length="13.88" width="3.50" shape="696.24,731.43,0.03 699.95,730.87,0.03 702.58,729.22,0.03 704.12,726.47,0.02 704.57,722.61,0.02"/>
    </edge>
    <edge id=":106_10" function="internal">
        <lane id=":106_10_0" index="0" disallow="pedestrian tram rail_urban rail rail_electric rail_fast ship" speed="13.89" length="18.34" width="3.50" shape="696.24,731.43,0.03 714.59,731.64"/>
    </edge>
    <edge id=":106_11" function="internal">
        <lane id=":106_11_0" index="0" disallow="pedestrian tram rail_urban rail rail_electric rail_fast ship" speed="9.34" length="5.59" width="3.50" shape="696.24,731.43,0.03 701.53,732.16,0.03 701.75,732.29,0.03"/>
    </edge>
    <edge id=":106_13" function="internal">
        <lane id=":106_13_0" index="0" disallow="pedestrian tram rail_urban rail rail_electric rail_fast ship" speed="9.34" length="13.71" width="3.50" shape="701.75,732.29,0.03 705.34,734.35,0.02 707.68,738.03,0.02 708.55,743.18,0.02"/>
    </edge>
    <edge id=":167_0" function="internal">
        <lane id=":167_0_0" index="0" disallow="pedestrian tram rail_urban rail rail_electric rail_fast ship" speed="6.72" length="9.57" width="3.50" shape="851.48,600.57 851.02,598.54,0.04 849.67,597.10,0.08 847.44,596.24,0.13 844.33,595.97,0.20"/>
    </edge>
    <edge id=":167_1" function="internal">
        <lane id=":167_1_0" index="0" disallow="pedestrian tram rail_urban rail rail_electric rail_fast ship" speed="13.89" length="14.56" width="3.50" shape="851.48,600.57 851.28,586.01"/>
    </edge>
    <edge id=":167_2" function="internal">
        <lane id=":167_2_0" index="0" disallow="pedestrian tram rail_urban rail rail_electric rail_fast ship" speed="7.47" length="12.17" width="3.50" shape="851.48,600.57 852.15,597.71,0.05 853.93,595.08,0.10 856.43,593.15,0.15 859.23,592.39,0.20"/>
    </edge>
    <edge id=":167_3" function="internal">
        <lane id=":167_3_0" index="0" disallow="pedestrian tram rail_urban rail rail_electric rail_fast ship" speed="5.91" length="7.20" width="3.50" shape="859.25,595.89,0.20 857.36,596.19,0.15 856.02,597.06,0.10 855.23,598.51,0.06 854.98,600.53"/>
    </edge>
    <edge id=":167_4" function="internal">
        <lane id=":167_4_0" index="0" disallow="pedestrian tram rail_urban rail rail_electric rail_fast ship" speed="13.89" length="14.92" width="3.50" shape="859.25,595.89,0.20 844.33,595.97,0.20"/>
    </edge>
    <edge id=":167_5" function="internal">
        <lane id=":167_5_0" index="0" disallow="pedestrian tram rail_urban rail rail_electric rail_fast ship" speed="7.90" length="3.75" width="3.50" shape="859.25,595.89,0.20 856.36,594.95,0.16 855.84,594.47,0.15"/>
    </edge>
    <edge id=":167_12" function="internal">
        <lane id=":167_12_0" index="0" disallow="pedestrian tram rail_urban rail rail_electric rail_fast ship" speed="7.90" length="9.89" width="3.50" shape="855.84,594.47,0.15 853.81,592.55,0.10 851.99,589.34,0.05 851.28,586.01"/>
    </edge>
    <edge id=":167_6" function="internal">
        <lane id=":167_6_0" index="0" disallow="pedestrian tram rail_urban rail rail_electric rail_fast ship" speed="6.48" length="8.81" width="3.50" shape="854.78,585.97 855.09,588.79,0.06 855.93,590.80,0.11 857.31,592.00,0.16 859.23,592.39,0.20"/>
    </edge>
    <edge id=":167_7" function="internal">
        <lane id=":167_7_0" index="0" disallow="pedestrian tram rail_urban rail rail_electric rail_fast ship" speed="13.89" length="14.57" width="3.50" shape="854.78,585.97 854.98,600.53"/>
    </edge>
    <edge id=":167_8" function="internal">
        <lane id=":167_8_0" index="0" disallow="pedestrian tram rail_urban rail rail_electric rail_fast ship" speed="8.38" length="15.63" width="3.50" shape="854.78,585.97 853.85,589.56,0.05 851.39,592.76,0.10 848.01,595.07,0.15 844.33,595.97,0.20"/>
    </edge>
    <edge id=":167_9" function="internal">
        <lane id=":167_9_0" index="0" disallow="pedestrian tram rail_urban rail rail_electric rail_fast ship" speed="7.08" length="10.84" width="3.50" shape="844.31,592.47,0.20 847.39,592.05,0.14 849.58,590.83,0.10 850.87,588.82,0.05 851.28,586.01"/>
    </edge>
    <edge id=":167_10" function="internal">
        <lane id=":167_10_0" index="0" disallow="pedestrian tram rail_urban rail rail_electric rail_fast ship" speed="13.89" length="14.92" width="3.50" shape="844.31,592.47,0.20 859.23,592.39,0.20"/>
    </edge>
    <edge id=":167_11" function="internal">
        <lane id=":167_11_0" index="0" disallow="pedestrian tram rail_urban rail rail_electric rail_fast ship" speed="8.08" length="5.40" width="3.50" shape="844.31,592.47,0.20 847.85,593.15,0.15 849.44,593.98,0.12"/>
    </edge>
    <edge id=":167_13" function="internal">
        <lane id=":167_13_0" index="0" disallow="pedestrian tram rail_urban rail rail_electric rail_fast ship" speed="8.08" length="8.95" width="3.50" shape="849.44,593.98,0.12 851.30,594.97,0.10 853.92,597.55,0.04 854.98,600.53"/>
    </edge>
    <edge id=":252_0" function="internal">
        <lane id=":252_0_0" index="0" disallow="pedestrian tram rail_urban rail rail_electric rail_fast ship" speed="13.89" length="15.24" width="3.50" shape="715.86,819.48 700.62,819.59"/>
        <lane id=":252_0_1" index="1" disallow="pedestrian tram rail_urban rail rail_electric rail_fast ship" speed="13.89" length="15.24" width="3.50" shape="715.82,815.98 700.59,816.09"/>
        <lane id=":252_0_2" index="2" disallow="pedestrian tram rail_urban rail rail_electric rail_fast ship" speed="13.89" length="15.24" width="3.50" shape="715.78,812.48 700.55,812.59"/>
        <lane id=":252_0_3" index="3" disallow="pedestrian tram rail_urban rail rail_electric rail_fast ship" speed="13.89" length="15.24" width="3.50" shape="715.75,808.98 700.51,809.09"/>
    </edge>
    <edge id=":252_4" function="internal">
        <lane id=":252_4_0" index="0" disallow="pedestrian tram rail_urban rail rail_electric rail_fast ship" speed="6.74" length="9.56" width="3.50" shape="709.44,782.18,0.02 709.87,784.74,0.01 711.03,786.56,0.01 712.92,787.64,0.01 715.54,787.98"/>
    </edge>
    <edge id=":252_5" function="internal">
        <lane id=":252_5_0" index="0" disallow="pedestrian tram rail_urban rail rail_electric rail_fast ship" speed="6.59" length="9.28" width="3.50" shape="700.30,788.09 702.82,787.71,0.01 704.60,786.61,0.01 705.64,784.79,0.01 705.94,782.26,0.02"/>
    </edge>
    <edge id=":252_6" function="internal">
        <lane id=":252_6_0" index="0" disallow="pedestrian tram rail_urban rail rail_electric rail_fast ship" speed="13.89" length="15.23" width="3.50" shape="700.34,791.59 715.57,791.48"/>
        <lane id=":252_6_1" index="1" disallow="pedestrian tram rail_urban rail rail_electric rail_fast ship" speed="13.89" length="15.23" width="3.50" shape="700.37,795.09 715.61,794.98"/>
        <lane id=":252_6_2" index="2" disallow="pedestrian tram rail_urban rail rail_electric rail_fast ship" speed="13.89" length="15.23" width="3.50" shape="700.41,798.59 715.64,798.48"/>
    </edge>
    <edge id=":281_0" function="internal">
        <lane id=":281_0_0" index="0" disallow="pedestrian tram rail_urban rail rail_electric rail_fast ship" speed="13.89" length="16.26" width="3.50" shape="768.32,734.58 752.07,734.75"/>
    </edge>
    <edge id=":281_1" function="internal">
        <lane id=":281_1_0" index="0" disallow="pedestrian tram rail_urban rail rail_electric rail_fast ship" speed="8.47" length="16.00" width="3.50" shape="768.32,734.58 763.97,734.00,0.01 760.86,732.17,0.01 758.99,729.08,0.01 758.36,724.74,0.02"/>
    </edge>
    <edge id=":281_2" function="internal">
        <lane id=":281_2_0" index="0" disallow="pedestrian tram rail_urban rail rail_electric rail_fast ship" speed="6.93" length="10.32" width="3.50" shape="761.86,724.73,0.02 762.26,727.53,0.01 763.47,729.53,0.01 765.48,730.71,0.01 768.29,731.08"/>
    </edge>
    <edge id=":281_3" function="internal">
        <lane id=":281_3_0" index="0" disallow="pedestrian tram rail_urban rail rail_electric rail_fast ship" speed="8.50" length="15.95" width="3.50" shape="761.86,724.73,0.02 761.25,729.08,0.01 759.42,732.19,0.01 756.36,734.08,0.01 752.07,734.75"/>
    </edge>
    <edge id=":281_4" function="internal">
        <lane id=":281_4_0" index="0" disallow="pedestrian tram rail_urban rail rail_electric rail_fast ship" speed="6.96" length="10.33" width="3.50" shape="752.03,731.25 754.80,730.82,0.01 756.78,729.59,0.01 757.97,727.56,0.01 758.36,724.74,0.02"/>
    </edge>
    <edge id=":281_5" function="internal">
        <lane id=":281_5_0" index="0" disallow="pedestrian tram rail_urban rail rail_electric rail_fast ship" speed="13.89" length="16.26" width="3.50" shape="752.03,731.25 768.29,731.08"/>
    </edge>
    <edge id=":317_0" function="internal">
        <lane id=":317_0_0" index="0" disallow="pedestrian tram rail_urban rail rail_electric rail_fast ship" speed="8.14" length="14.42" width="3.50" shape="814.80,682.63 814.20,678.80 812.49,676.05 809.65,674.38 805.69,673.79"/>
    </edge>
    <edge id=":317_1" function="internal">
        <lane id=":317_1_0" index="0" disallow="pedestrian tram rail_urban rail rail_electric rail_fast ship" speed="13.89" length="21.26" width="3.50" shape="814.80,682.63 814.62,661.37"/>
    </edge>
    <edge id=":317_2" function="internal">
        <lane id=":317_2_0" index="0" disallow="pedestrian tram rail_urban rail rail_electric rail_fast ship" speed="9.06" length="3.16" width="3.50" shape="814.80,682.63 815.17,679.50"/>
    </edge>
    <edge id=":317_12" function="internal">
        <lane id=":317_12_0" index="0" disallow="pedestrian tram rail_urban rail rail_electric rail_fast ship" speed="9.06" length="15.52" width="3.50" shape="815.17,679.50 815.44,677.25 817.46,673.42 820.86,671.15 825.64,670.43"/>
    </edge>
    <edge id=":317_3" function="internal">
        <lane id=":317_3_0" index="0" disallow="pedestrian tram rail_urban rail rail_electric rail_fast ship" speed="7.64" length="12.95" width="3.50" shape="825.60,673.93 822.38,674.44 820.09,676.06 818.73,678.78 818.30,682.60"/>
    </edge>
    <edge id=":317_4" function="internal">
        <lane id=":317_4_0" index="0" disallow="pedestrian tram rail_urban rail rail_electric rail_fast ship" speed="13.89" length="19.91" width="3.50" shape="825.60,673.93 805.69,673.79"/>
    </edge>
    <edge id=":317_5" function="internal">
        <lane id=":317_5_0" index="0" disallow="pedestrian tram rail_urban rail rail_electric rail_fast ship" speed="9.25" length="18.91" width="3.50" shape="825.60,673.93 820.84,673.10 817.42,670.73 815.35,666.82 814.62,661.37"/>
    </edge>
    <edge id=":317_6" function="internal">
        <lane id=":317_6_0" index="0" disallow="pedestrian tram rail_urban rail rail_electric rail_fast ship" speed="7.86" length="13.36" width="3.50" shape="818.12,661.34 818.62,665.29 820.04,668.12 822.38,669.83 825.64,670.43"/>
    </edge>
    <edge id=":317_7" function="internal">
        <lane id=":317_7_0" index="0" disallow="pedestrian tram rail_urban rail rail_electric rail_fast ship" speed="13.89" length="21.26" width="3.50" shape="818.12,661.34 818.30,682.60"/>
    </edge>
    <edge id=":317_8" function="internal">
        <lane id=":317_8_0" index="0" disallow="pedestrian tram rail_urban rail rail_electric rail_fast ship" speed="9.39" length="20.15" width="3.50" shape="818.12,661.34 817.39,666.84 815.07,670.74 811.17,673.06 805.69,673.79"/>
    </edge>
    <edge id=":317_9" function="internal">
        <lane id=":317_9_0" index="0" disallow="pedestrian tram rail_urban rail rail_electric rail_fast ship" speed="8.03" length="14.43" width="3.50" shape="805.73,670.29 809.65,669.77 812.44,668.11 814.10,665.31 814.62,661.37"/>
    </edge>
    <edge id=":317_10" function="internal">
        <lane id=":317_10_0" index="0" disallow="pedestrian tram rail_urban rail rail_electric rail_fast ship" speed="13.89" length="19.91" width="3.50" shape="805.73,670.29 825.64,670.43"/>
    </edge>
    <edge id=":317_11" function="internal">
        <lane id=":317_11_0" index="0" disallow="pedestrian tram rail_urban rail rail_electric rail_fast ship" speed="9.49" length="19.98" width="3.50" shape="805.73,670.29 811.19,671.11 815.10,673.43 817.48,677.26 818.30,682.60"/>
    </edge>
    <edge id=":386_0" function="internal">
        <lane id=":386_0_0" index="0" disallow="pedestrian tram rail_urban rail rail_electric rail_fast ship" speed="13.89" length="21.06" width="3.50" shape="814.58,657.59 814.40,636.53"/>
    </edge>
    <edge id=":386_1" function="internal">
        <lane id=":386_1_0" index="0" disallow="pedestrian tram rail_urban rail rail_electric rail_fast ship" speed="13.89" length="20.95" width="3.50" shape="825.73,638.38 823.19,644.12 820.69,647.90 818.80,651.72 818.08,657.55"/>
    </edge>
    <edge id=":386_2" function="internal">
        <lane id=":386_2_0" index="0" disallow="pedestrian tram rail_urban rail rail_electric rail_fast ship" speed="13.89" length="21.05" width="3.50" shape="817.90,636.50 818.08,657.55"/>
    </edge>
    <edge id=":394_0" function="internal">
        <lane id=":394_0_0" index="0" disallow="pedestrian tram rail_urban rail rail_electric rail_fast ship" speed="7.63" length="12.68" width="3.50" shape="814.11,604.09 813.59,600.61,0.06 812.11,598.14,0.10 809.67,596.67,0.15 806.27,596.19,0.20"/>
    </edge>
    <edge id=":394_1" function="internal">
        <lane id=":394_1_0" index="0" disallow="pedestrian tram rail_urban rail rail_electric rail_fast ship" speed="13.89" length="19.10" width="3.50" shape="814.11,604.09 813.94,584.99"/>
    </edge>
    <edge id=":394_2" function="internal">
        <lane id=":394_2_0" index="0" disallow="pedestrian tram rail_urban rail rail_electric rail_fast ship" speed="8.92" length="5.31" width="3.50" shape="814.11,604.09 814.74,599.07,0.06 814.86,598.85,0.06"/>
    </edge>
    <edge id=":394_12" function="internal">
        <lane id=":394_12_0" index="0" disallow="pedestrian tram rail_urban rail rail_electric rail_fast ship" speed="8.92" length="12.55" width="3.50" shape="814.86,598.85,0.06 816.71,595.49,0.10 820.04,593.32,0.15 824.72,592.58,0.20"/>
    </edge>
    <edge id=":394_3" function="internal">
        <lane id=":394_3_0" index="0" disallow="pedestrian tram rail_urban rail rail_electric rail_fast ship" speed="7.48" length="12.20" width="3.50" shape="824.74,596.08,0.20 821.59,596.59,0.15 819.36,598.09,0.10 818.03,600.58,0.06 817.61,604.05"/>
    </edge>
    <edge id=":394_4" function="internal">
        <lane id=":394_4_0" index="0" disallow="pedestrian tram rail_urban rail rail_electric rail_fast ship" speed="13.89" length="18.47" width="3.50" shape="824.74,596.08,0.20 806.27,596.19,0.20"/>
    </edge>
    <edge id=":394_5" function="internal">
        <lane id=":394_5_0" index="0" disallow="pedestrian tram rail_urban rail rail_electric rail_fast ship" speed="8.90" length="17.64" width="3.50" shape="824.74,596.08,0.20 820.05,595.41,0.15 816.69,593.34,0.10 814.65,589.86,0.06 813.94,584.99"/>
    </edge>
    <edge id=":394_6" function="internal">
        <lane id=":394_6_0" index="0" disallow="pedestrian tram rail_urban rail rail_electric rail_fast ship" speed="7.44" length="12.01" width="3.50" shape="817.44,584.95 817.92,588.31,0.06 819.29,590.69,0.10 821.56,592.12,0.15 824.72,592.58,0.20"/>
    </edge>
    <edge id=":394_7" function="internal">
        <lane id=":394_7_0" index="0" disallow="pedestrian tram rail_urban rail rail_electric rail_fast ship" speed="13.89" length="19.10" width="3.50" shape="817.44,584.95 817.61,604.05"/>
    </edge>
    <edge id=":394_8" function="internal">
        <lane id=":394_8_0" index="0" disallow="pedestrian tram rail_urban rail rail_electric rail_fast ship" speed="8.98" length="5.10" width="3.50" shape="817.44,584.95 816.78,589.85,0.05 816.69,589.99,0.06"/>
    </edge>
    <edge id=":394_13" function="internal">
        <lane id=":394_13_0" index="0" disallow="pedestrian tram rail_urban rail rail_electric rail_fast ship" speed="8.98" length="12.98" width="3.50" shape="816.69,589.99,0.06 814.70,593.35,0.10 811.19,595.46,0.14 806.27,596.19,0.20"/>
    </edge>
    <edge id=":394_9" function="internal">
        <lane id=":394_9_0" index="0" disallow="pedestrian tram rail_urban rail rail_electric rail_fast ship" speed="7.54" length="12.42" width="3.50" shape="806.25,592.69,0.20 809.64,592.19,0.14 812.05,590.74,0.10 813.49,588.34,0.05 813.94,584.99"/>
    </edge>
    <edge id=":394_10" function="internal">
        <lane id=":394_10_0" index="0" disallow="pedestrian tram rail_urban rail rail_electric rail_fast ship" speed="13.89" length="18.47" width="3.50" shape="806.25,592.69,0.20 824.72,592.58,0.20"/>
    </edge>
    <edge id=":394_11" function="internal">
        <lane id=":394_11_0" index="0" disallow="pedestrian tram rail_urban rail rail_electric rail_fast ship" speed="9.05" length="18.31" width="3.50" shape="806.25,592.69,0.20 811.18,593.38,0.15 814.72,595.50,0.10 816.86,599.06,0.06 817.61,604.05"/>
    </edge>
    <edge id=":431_0" function="internal">
        <lane id=":431_0_0" index="0" disallow="pedestrian tram rail_urban rail rail_electric rail_fast ship" speed="6.93" length="10.35" width="3.50" shape="813.64,551.64 813.21,548.84,0.01 811.98,546.86,0.01 809.96,545.69,0.01 807.13,545.34,0.02"/>
    </edge>
    <edge id=":431_1" function="internal">
        <lane id=":431_1_0" index="0" disallow="pedestrian tram rail_urban rail rail_electric rail_fast ship" speed="13.89" length="14.91" width="3.50" shape="813.64,551.64 813.51,536.73"/>
    </edge>
    <edge id=":431_2" function="internal">
        <lane id=":431_2_0" index="0" disallow="pedestrian tram rail_urban rail rail_electric rail_fast ship" speed="8.73" length="16.89" width="3.50" shape="813.64,551.64 814.29,547.29,0.01 816.32,544.17,0.01 819.74,542.26,0.01 824.54,541.56,0.02"/>
    </edge>
    <edge id=":431_3" function="internal">
        <lane id=":431_3_0" index="0" disallow="pedestrian tram rail_urban rail rail_electric rail_fast ship" speed="7.24" length="11.28" width="3.50" shape="824.60,545.06,0.02 821.31,545.51,0.01 818.98,546.76,0.01 817.58,548.79,0.01 817.14,551.60"/>
    </edge>
    <edge id=":431_4" function="internal">
        <lane id=":431_4_0" index="0" disallow="pedestrian tram rail_urban rail rail_electric rail_fast ship" speed="13.89" length="17.47" width="3.50" shape="824.60,545.06,0.02 807.13,545.34,0.02"/>
    </edge>
    <edge id=":431_5" function="internal">
        <lane id=":431_5_0" index="0" disallow="pedestrian tram rail_urban rail rail_electric rail_fast ship" speed="8.41" length="3.59" width="3.50" shape="824.60,545.06,0.02 821.02,544.72,0.02"/>
    </edge>
    <edge id=":431_12" function="internal">
        <lane id=":431_12_0" index="0" disallow="pedestrian tram rail_urban rail rail_electric rail_fast ship" speed="8.41" length="12.17" width="3.50" shape="821.02,544.72,0.02 819.78,544.61,0.01 816.32,543.06,0.01 814.23,540.44,0.00 813.51,536.73"/>
    </edge>
    <edge id=":431_6" function="internal">
        <lane id=":431_6_0" index="0" disallow="pedestrian tram rail_urban rail rail_electric rail_fast ship" speed="6.86" length="10.12" width="3.50" shape="817.01,536.69 817.50,538.87,0.00 818.92,540.40,0.01 821.26,541.30,0.01 824.54,541.56,0.02"/>
    </edge>
    <edge id=":431_7" function="internal">
        <lane id=":431_7_0" index="0" disallow="pedestrian tram rail_urban rail rail_electric rail_fast ship" speed="13.89" length="14.91" width="3.50" shape="817.01,536.69 817.14,551.60"/>
    </edge>
    <edge id=":431_8" function="internal">
        <lane id=":431_8_0" index="0" disallow="pedestrian tram rail_urban rail rail_electric rail_fast ship" speed="8.24" length="14.92" width="3.50" shape="817.01,536.69 816.42,540.42,0.01 814.58,543.10,0.01 811.48,544.74,0.01 807.13,545.34,0.02"/>
    </edge>
    <edge id=":431_9" function="internal">
        <lane id=":431_9_0" index="0" disallow="pedestrian tram rail_urban rail rail_electric rail_fast ship" speed="6.65" length="9.32" width="3.50" shape="807.07,541.84,0.02 809.91,541.48,0.01 811.92,540.51,0.01 813.12,538.92,0.00 813.51,536.73"/>
    </edge>
    <edge id=":431_10" function="internal">
        <lane id=":431_10_0" index="0" disallow="pedestrian tram rail_urban rail rail_electric rail_fast ship" speed="13.89" length="17.47" width="3.50" shape="807.07,541.84,0.02 824.54,541.56,0.02"/>
    </edge>
    <edge id=":431_11" function="internal">